Mass spectrum: Apigenin; LC-ESI-QTOF-MS/MS; CE:Ramp 5-60 V; [M+H]+
Name: Apigenin
Name: Apig
Name: 4',5,7-trihydroxyflavone
Name: Apigenol
Name: Chamomile
Name: 5,7-Dihydroxy-2-(4-hydroxyphenyl)-4-benzopyrone
Name: Naringenin Chalcone
Class: Flavonoid
Formula: C15H10O5
Exact mass: 270.05282
SMILES: Oc(c3)ccc(c3)C(=C1)Oc(c2)c(c(O)cc(O)2)C(=O)1
InChI: InChI=1/C15H10O5/c16-9-3-1-8(2-4-9)13-7-12(19)15-11(18)5-10(17)6-14(15)20-13/h1-7,16-18H
Instrument: UPLC Q-Tof Premier, Waters
Instrument type: LC-ESI-QTOF-MS/MS
m/z	relative intensity
67.0186	180.0
68.9985	161.0
91.055	323.0
119.05	468.0
121.0305	167.0
141.0732	60.0
145.0296	204.0
153.02	999.0
163.0419	72.0
243.0659	66.0
271.0606	999.0
